LIG(A-501)
  -OEChem-03232112073D

 48 51  0     1  0  0  0  0  0999 V2000
   13.4080    6.7370   22.2740 O   0  0  0  0  0  0  0  0  0  0  0  0
   13.3710    5.5230   22.4450 C   0  0  0  0  0  0  0  0  0  0  0  0
   12.5630    4.3680   21.8720 C   0  0  0  0  0  0  0  0  0  0  0  0
   14.0780    4.7070   23.2490 N   0  0  0  0  0  0  0  0  0  0  0  0
   13.5690    3.4780   22.6100 C   0  0  1  0  0  0  0  0  0  0  0  0
   12.8090    2.6330   23.4920 O   0  0  0  0  0  0  0  0  0  0  0  0
   12.6070    1.3360   23.0710 C   0  0  0  0  0  0  0  0  0  0  0  0
   13.6510    0.5260   22.6520 C   0  0  0  0  0  0  0  0  0  0  0  0
   13.3590   -0.7700   22.2690 C   0  0  0  0  0  0  0  0  0  0  0  0
   14.6690   -1.8380   21.8440 Cl  0  0  0  0  0  0  0  0  0  0  0  0
   11.3020    0.8710   23.0990 C   0  0  0  0  0  0  0  0  0  0  0  0
   11.0450   -0.4290   22.6900 C   0  0  0  0  0  0  0  0  0  0  0  0
   12.0710   -1.2660   22.2740 C   0  0  0  0  0  0  0  0  0  0  0  0
    9.7170   -0.7810   22.6840 O   0  0  0  0  0  0  0  0  0  0  0  0
    9.3480   -2.0780   22.1920 C   0  0  0  0  0  0  0  0  0  0  0  0
    7.8570   -2.1760   22.2840 C   0  0  0  0  0  0  0  0  0  0  0  0
    7.2170   -1.1540   21.4680 N   0  0  0  0  0  0  0  0  0  0  0  0
    6.1050   -1.3990   20.7740 C   0  0  0  0  0  0  0  0  0  0  0  0
    5.5260   -2.4830   20.8250 O   0  0  0  0  0  0  0  0  0  0  0  0
    5.6120   -0.2890   19.9120 C   0  0  0  0  0  0  0  0  0  0  0  0
    4.6780    0.7260   20.4020 C   0  0  0  0  0  0  0  0  0  0  0  0
    4.1420    0.7130   21.6920 C   0  0  0  0  0  0  0  0  0  0  0  0
    3.2620    1.7060   22.0890 C   0  0  0  0  0  0  0  0  0  0  0  0
    2.9140    2.7240   21.2190 C   0  0  0  0  0  0  0  0  0  0  0  0
    3.4270    2.7580   19.9310 C   0  0  0  0  0  0  0  0  0  0  0  0
    4.3110    1.7620   19.5130 C   0  0  0  0  0  0  0  0  0  0  0  0
    4.8530    1.7840   18.2260 N   0  0  0  0  0  0  0  0  0  0  0  0
    5.7450    0.8580   17.7450 C   0  0  0  0  0  0  0  0  0  0  0  0
    6.2590    1.0050   16.6260 O   0  0  0  0  0  0  0  0  0  0  0  0
    6.0900   -0.2050   18.6430 C   0  0  0  0  0  0  0  0  0  0  0  0
   11.5252    4.2989   22.2301 H   0  0  0  0  0  0  0  0  0  0  0  0
   12.5788    4.2836   20.7754 H   0  0  0  0  0  0  0  0  0  0  0  0
   14.7143    4.8727   24.0024 H   0  0  0  0  0  0  0  0  0  0  0  0
   14.2835    2.9636   21.9506 H   0  0  0  0  0  0  0  0  0  0  0  0
   14.6649    0.8972   22.6255 H   0  0  0  0  0  0  0  0  0  0  0  0
   10.4984    1.5103   23.4337 H   0  0  0  0  0  0  0  0  0  0  0  0
   11.8667   -2.2796   21.9621 H   0  0  0  0  0  0  0  0  0  0  0  0
    9.6697   -2.1903   21.1461 H   0  0  0  0  0  0  0  0  0  0  0  0
    9.8162   -2.8616   22.8058 H   0  0  0  0  0  0  0  0  0  0  0  0
    7.5391   -3.1686   21.9324 H   0  0  0  0  0  0  0  0  0  0  0  0
    7.5515   -2.0431   23.3323 H   0  0  0  0  0  0  0  0  0  0  0  0
    7.6234   -0.2412   21.4268 H   0  0  0  0  0  0  0  0  0  0  0  0
    4.4144   -0.0728   22.3810 H   0  0  0  0  0  0  0  0  0  0  0  0
    2.8444    1.6856   23.0848 H   0  0  0  0  0  0  0  0  0  0  0  0
    2.2367    3.4992   21.5459 H   0  0  0  0  0  0  0  0  0  0  0  0
    3.1439    3.5511   19.2548 H   0  0  0  0  0  0  0  0  0  0  0  0
    4.5726    2.5236   17.6141 H   0  0  0  0  0  0  0  0  0  0  0  0
    6.7617   -0.9755   18.2942 H   0  0  0  0  0  0  0  0  0  0  0  0
  1  2  2  0  0  0  0
  2  3  1  0  0  0  0
  2  4  1  0  0  0  0
  3  5  1  0  0  0  0
  4  5  1  0  0  0  0
  5  6  1  0  0  0  0
  6  7  1  0  0  0  0
  7  8  2  0  0  0  0
  7 11  1  0  0  0  0
  8  9  1  0  0  0  0
  9 10  1  0  0  0  0
  9 13  2  0  0  0  0
 11 12  2  0  0  0  0
 12 13  1  0  0  0  0
 12 14  1  0  0  0  0
 14 15  1  0  0  0  0
 15 16  1  0  0  0  0
 16 17  1  0  0  0  0
 17 18  1  0  0  0  0
 18 19  2  0  0  0  0
 18 20  1  0  0  0  0
 20 21  1  0  0  0  0
 20 30  2  0  0  0  0
 21 22  2  0  0  0  0
 21 26  1  0  0  0  0
 22 23  1  0  0  0  0
 23 24  2  0  0  0  0
 24 25  1  0  0  0  0
 25 26  2  0  0  0  0
 26 27  1  0  0  0  0
 27 28  1  0  0  0  0
 28 29  2  0  0  0  0
 28 30  1  0  0  0  0
  3 31  1  0  0  0  0
  3 32  1  0  0  0  0
  4 33  1  0  0  0  0
  5 34  1  0  0  0  0
  8 35  1  0  0  0  0
 11 36  1  0  0  0  0
 13 37  1  0  0  0  0
 15 38  1  0  0  0  0
 15 39  1  0  0  0  0
 16 40  1  0  0  0  0
 16 41  1  0  0  0  0
 17 42  1  0  0  0  0
 22 43  1  0  0  0  0
 23 44  1  0  0  0  0
 24 45  1  0  0  0  0
 25 46  1  0  0  0  0
 27 47  1  0  0  0  0
 30 48  1  0  0  0  0
M  END
$$$$
