LIG(A-401)
  -OEChem-04222116163D

 66 68  0     1  0  0  0  0  0999 V2000
   12.7370    6.7850   24.6850 F   0  0  0  0  0  0  0  0  0  0  0  0
   12.5400    5.6620   23.9420 C   0  0  0  0  0  0  0  0  0  0  0  0
   11.4880    4.8350   24.2750 C   0  0  0  0  0  0  0  0  0  0  0  0
   13.3630    5.4380   22.8720 C   0  0  0  0  0  0  0  0  0  0  0  0
   13.1040    4.3310   22.0820 C   0  0  0  0  0  0  0  0  0  0  0  0
   12.0460    3.4840   22.3810 C   0  0  0  0  0  0  0  0  0  0  0  0
   11.2230    3.7260   23.4730 C   0  0  0  0  0  0  0  0  0  0  0  0
   10.0360    2.8320   23.7580 C   0  0  0  0  0  0  0  0  0  0  0  0
    8.7520    3.2630   23.0390 C   0  0  0  0  0  0  0  0  0  0  0  0
    7.8780    2.1380   22.7200 N   0  0  0  0  0  0  0  0  0  0  0  0
    8.0660    1.3800   21.6370 C   0  0  0  0  0  0  0  0  0  0  0  0
    8.9960    1.5470   20.8590 O   0  0  0  0  0  0  0  0  0  0  0  0
    7.0230    0.2700   21.4020 C   0  0  1  0  0  0  0  0  0  0  0  0
    6.3640    0.3910   20.0330 C   0  0  0  0  0  0  0  0  0  0  0  0
    5.1840    1.1030   19.8720 C   0  0  0  0  0  0  0  0  0  0  0  0
    4.7060    1.3810   18.6060 C   0  0  0  0  0  0  0  0  0  0  0  0
    5.4210    0.9120   17.5190 C   0  0  0  0  0  0  0  0  0  0  0  0
    6.5450    0.1940   17.6340 N   0  0  0  0  0  0  0  0  0  0  0  0
    6.9880   -0.0560   18.8740 C   0  0  0  0  0  0  0  0  0  0  0  0
    7.5420   -1.0880   21.7240 N   0  0  0  0  0  0  0  0  0  0  0  0
    6.7890   -2.2070   21.4880 C   0  0  0  0  0  0  0  0  0  0  0  0
    5.6410   -2.1330   21.0650 O   0  0  0  0  0  0  0  0  0  0  0  0
    7.4080   -3.5650   21.7540 C   0  0  0  0  0  0  0  0  0  0  0  0
    7.4240   -4.4470   20.5040 C   0  0  0  0  0  0  0  0  0  0  0  0
    8.8350   -1.1630   22.3540 C   0  0  0  0  0  0  0  0  0  0  0  0
    9.9810   -1.4020   21.5980 C   0  0  0  0  0  0  0  0  0  0  0  0
   11.2210   -1.4660   22.2150 C   0  0  0  0  0  0  0  0  0  0  0  0
   11.3530   -1.3000   23.5930 C   0  0  0  0  0  0  0  0  0  0  0  0
   12.7130   -1.3970   24.3010 C   0  0  0  0  0  0  0  0  0  0  0  0
   12.6310   -2.4340   25.4270 C   0  0  0  0  0  0  0  0  0  0  0  0
   13.8550   -1.8230   23.3670 C   0  0  0  0  0  0  0  0  0  0  0  0
   13.0800   -0.0370   24.9060 C   0  0  0  0  0  0  0  0  0  0  0  0
   10.2020   -1.0560   24.3380 C   0  0  0  0  0  0  0  0  0  0  0  0
    8.9570   -0.9950   23.7360 C   0  0  0  0  0  0  0  0  0  0  0  0
   10.8795    5.0430   25.1427 H   0  0  0  0  0  0  0  0  0  0  0  0
   14.1860    6.1017   22.6514 H   0  0  0  0  0  0  0  0  0  0  0  0
   13.7301    4.1249   21.2265 H   0  0  0  0  0  0  0  0  0  0  0  0
   11.8600    2.6238   21.7550 H   0  0  0  0  0  0  0  0  0  0  0  0
   10.2866    1.8098   23.4381 H   0  0  0  0  0  0  0  0  0  0  0  0
    9.8468    2.8411   24.8416 H   0  0  0  0  0  0  0  0  0  0  0  0
    8.2033    3.9615   23.6878 H   0  0  0  0  0  0  0  0  0  0  0  0
    9.0269    3.7711   22.1029 H   0  0  0  0  0  0  0  0  0  0  0  0
    7.1149    1.9286   23.3315 H   0  0  0  0  0  0  0  0  0  0  0  0
    6.2226    0.4656   22.1307 H   0  0  0  0  0  0  0  0  0  0  0  0
    4.6371    1.4412   20.7397 H   0  0  0  0  0  0  0  0  0  0  0  0
    3.7980    1.9495   18.4688 H   0  0  0  0  0  0  0  0  0  0  0  0
    5.0543    1.1361   16.5282 H   0  0  0  0  0  0  0  0  0  0  0  0
    7.8884   -0.6430   18.9796 H   0  0  0  0  0  0  0  0  0  0  0  0
    8.4424   -3.4214   22.0996 H   0  0  0  0  0  0  0  0  0  0  0  0
    6.8265   -4.0721   22.5380 H   0  0  0  0  0  0  0  0  0  0  0  0
    7.8806   -5.4181   20.7457 H   0  0  0  0  0  0  0  0  0  0  0  0
    6.3934   -4.6038   20.1528 H   0  0  0  0  0  0  0  0  0  0  0  0
    8.0093   -3.9531   19.7144 H   0  0  0  0  0  0  0  0  0  0  0  0
    9.9031   -1.5376   20.5294 H   0  0  0  0  0  0  0  0  0  0  0  0
   12.1015   -1.6479   21.6167 H   0  0  0  0  0  0  0  0  0  0  0  0
   13.6048   -2.5034   25.9339 H   0  0  0  0  0  0  0  0  0  0  0  0
   11.8617   -2.1284   26.1514 H   0  0  0  0  0  0  0  0  0  0  0  0
   12.3674   -3.4145   25.0038 H   0  0  0  0  0  0  0  0  0  0  0  0
   14.7954   -1.8723   23.9356 H   0  0  0  0  0  0  0  0  0  0  0  0
   13.6312   -2.8127   22.9422 H   0  0  0  0  0  0  0  0  0  0  0  0
   13.9564   -1.0893   22.5537 H   0  0  0  0  0  0  0  0  0  0  0  0
   14.0540   -0.1109   25.4117 H   0  0  0  0  0  0  0  0  0  0  0  0
   13.1384    0.7161   24.1064 H   0  0  0  0  0  0  0  0  0  0  0  0
   12.3106    0.2600   25.6339 H   0  0  0  0  0  0  0  0  0  0  0  0
   10.2822   -0.9117   25.4053 H   0  0  0  0  0  0  0  0  0  0  0  0
    8.0770   -0.8170   24.3363 H   0  0  0  0  0  0  0  0  0  0  0  0
  1  2  1  0  0  0  0
  2  3  2  0  0  0  0
  2  4  1  0  0  0  0
  3  7  1  0  0  0  0
  4  5  2  0  0  0  0
  5  6  1  0  0  0  0
  6  7  2  0  0  0  0
  7  8  1  0  0  0  0
  8  9  1  0  0  0  0
  9 10  1  0  0  0  0
 10 11  1  0  0  0  0
 11 12  2  0  0  0  0
 11 13  1  0  0  0  0
 13 14  1  0  0  0  0
 13 20  1  0  0  0  0
 14 15  2  0  0  0  0
 14 19  1  0  0  0  0
 15 16  1  0  0  0  0
 16 17  2  0  0  0  0
 17 18  1  0  0  0  0
 18 19  2  0  0  0  0
 20 21  1  0  0  0  0
 20 25  1  0  0  0  0
 21 22  2  0  0  0  0
 21 23  1  0  0  0  0
 23 24  1  0  0  0  0
 25 26  2  0  0  0  0
 25 34  1  0  0  0  0
 26 27  1  0  0  0  0
 27 28  2  0  0  0  0
 28 29  1  0  0  0  0
 28 33  1  0  0  0  0
 29 30  1  0  0  0  0
 29 31  1  0  0  0  0
 29 32  1  0  0  0  0
 33 34  2  0  0  0  0
  3 35  1  0  0  0  0
  4 36  1  0  0  0  0
  5 37  1  0  0  0  0
  6 38  1  0  0  0  0
  8 39  1  0  0  0  0
  8 40  1  0  0  0  0
  9 41  1  0  0  0  0
  9 42  1  0  0  0  0
 10 43  1  0  0  0  0
 13 44  1  0  0  0  0
 15 45  1  0  0  0  0
 16 46  1  0  0  0  0
 17 47  1  0  0  0  0
 19 48  1  0  0  0  0
 23 49  1  0  0  0  0
 23 50  1  0  0  0  0
 24 51  1  0  0  0  0
 24 52  1  0  0  0  0
 24 53  1  0  0  0  0
 26 54  1  0  0  0  0
 27 55  1  0  0  0  0
 30 56  1  0  0  0  0
 30 57  1  0  0  0  0
 30 58  1  0  0  0  0
 31 59  1  0  0  0  0
 31 60  1  0  0  0  0
 31 61  1  0  0  0  0
 32 62  1  0  0  0  0
 32 63  1  0  0  0  0
 32 64  1  0  0  0  0
 33 65  1  0  0  0  0
 34 66  1  0  0  0  0
M  END
$$$$
