LIG(A-404)
  -OEChem-04222116163D

 43 46  0     1  0  0  0  0  0999 V2000
   14.1050   -1.5160   21.3470 Cl  0  0  0  0  0  0  0  0  0  0  0  0
   12.8720   -0.7890   22.3380 C   0  0  0  0  0  0  0  0  0  0  0  0
   11.5640   -1.1900   22.1740 C   0  0  0  0  0  0  0  0  0  0  0  0
   13.2240    0.1710   23.2650 C   0  0  0  0  0  0  0  0  0  0  0  0
   12.2430    0.7300   24.0660 C   0  0  0  0  0  0  0  0  0  0  0  0
   10.9100    0.3470   23.9110 C   0  0  0  0  0  0  0  0  0  0  0  0
    9.8900    0.8880   24.7070 N   0  0  3  0  0  0  0  0  0  0  0  0
   10.2090    1.8390   25.7650 C   0  0  0  0  0  0  0  0  0  0  0  0
   10.5620   -0.6120   22.9460 C   0  0  0  0  0  0  0  0  0  0  0  0
    9.1170   -0.9980   22.7130 C   0  0  1  0  0  0  0  0  0  0  0  0
    8.2790   -0.7900   23.9900 C   0  0  0  0  0  0  0  0  0  0  0  0
    8.4640    0.6260   24.5260 C   0  0  0  0  0  0  0  0  0  0  0  0
    8.5820   -0.1400   21.5660 C   0  0  0  0  0  0  0  0  0  0  0  0
    9.1450    0.8900   21.1940 O   0  0  0  0  0  0  0  0  0  0  0  0
    7.4550   -0.6090   21.0020 N   0  0  0  0  0  0  0  0  0  0  0  0
    6.7510   -0.0440   19.9320 C   0  0  0  0  0  0  0  0  0  0  0  0
    5.6520    0.8190   20.2230 C   0  0  0  0  0  0  0  0  0  0  0  0
    5.1790    1.0820   21.5370 C   0  0  0  0  0  0  0  0  0  0  0  0
    4.1320    1.9340   21.7490 C   0  0  0  0  0  0  0  0  0  0  0  0
    3.4960    2.5540   20.6770 C   0  0  0  0  0  0  0  0  0  0  0  0
    3.9130    2.3290   19.3970 C   0  0  0  0  0  0  0  0  0  0  0  0
    4.9980    1.4590   19.1340 C   0  0  0  0  0  0  0  0  0  0  0  0
    5.4760    1.1840   17.8300 C   0  0  0  0  0  0  0  0  0  0  0  0
    6.4950    0.3780   17.5610 N   0  0  0  0  0  0  0  0  0  0  0  0
    7.1110   -0.2130   18.5970 C   0  0  0  0  0  0  0  0  0  0  0  0
   11.3177   -1.9508   21.4482 H   0  0  0  0  0  0  0  0  0  0  0  0
   14.2533    0.4826   23.3644 H   0  0  0  0  0  0  0  0  0  0  0  0
   12.5097    1.4638   24.8122 H   0  0  0  0  0  0  0  0  0  0  0  0
    9.2834    2.1467   26.2735 H   0  0  0  0  0  0  0  0  0  0  0  0
   10.8863    1.3658   26.4912 H   0  0  0  0  0  0  0  0  0  0  0  0
   10.6984    2.7222   25.3286 H   0  0  0  0  0  0  0  0  0  0  0  0
    9.0668   -2.0578   22.4225 H   0  0  0  0  0  0  0  0  0  0  0  0
    7.2165   -0.9525   23.7561 H   0  0  0  0  0  0  0  0  0  0  0  0
    8.6005   -1.5116   24.7554 H   0  0  0  0  0  0  0  0  0  0  0  0
    8.0451    1.3483   23.8098 H   0  0  0  0  0  0  0  0  0  0  0  0
    7.9462    0.7246   25.4915 H   0  0  0  0  0  0  0  0  0  0  0  0
    7.0796   -1.4515   21.3882 H   0  0  0  0  0  0  0  0  0  0  0  0
    5.6537    0.6017   22.3798 H   0  0  0  0  0  0  0  0  0  0  0  0
    3.7950    2.1280   22.7566 H   0  0  0  0  0  0  0  0  0  0  0  0
    2.6650    3.2191   20.8599 H   0  0  0  0  0  0  0  0  0  0  0  0
    3.4101    2.8196   18.5768 H   0  0  0  0  0  0  0  0  0  0  0  0
    4.9782    1.6620   16.9992 H   0  0  0  0  0  0  0  0  0  0  0  0
    7.9441   -0.8652   18.3803 H   0  0  0  0  0  0  0  0  0  0  0  0
  1  2  1  0  0  0  0
  2  3  2  0  0  0  0
  2  4  1  0  0  0  0
  3  9  1  0  0  0  0
  4  5  2  0  0  0  0
  5  6  1  0  0  0  0
  6  7  1  0  0  0  0
  6  9  2  0  0  0  0
  7  8  1  0  0  0  0
  7 12  1  0  0  0  0
  9 10  1  0  0  0  0
 10 11  1  0  0  0  0
 10 13  1  0  0  0  0
 11 12  1  0  0  0  0
 13 14  2  0  0  0  0
 13 15  1  0  0  0  0
 15 16  1  0  0  0  0
 16 17  2  0  0  0  0
 16 25  1  0  0  0  0
 17 18  1  0  0  0  0
 17 22  1  0  0  0  0
 18 19  2  0  0  0  0
 19 20  1  0  0  0  0
 20 21  2  0  0  0  0
 21 22  1  0  0  0  0
 22 23  2  0  0  0  0
 23 24  1  0  0  0  0
 24 25  2  0  0  0  0
  3 26  1  0  0  0  0
  4 27  1  0  0  0  0
  5 28  1  0  0  0  0
  8 29  1  0  0  0  0
  8 30  1  0  0  0  0
  8 31  1  0  0  0  0
 10 32  1  0  0  0  0
 11 33  1  0  0  0  0
 11 34  1  0  0  0  0
 12 35  1  0  0  0  0
 12 36  1  0  0  0  0
 15 37  1  0  0  0  0
 18 38  1  0  0  0  0
 19 39  1  0  0  0  0
 20 40  1  0  0  0  0
 21 41  1  0  0  0  0
 23 42  1  0  0  0  0
 25 43  1  0  0  0  0
M  END
$$$$
