LIG(B-1101)
  -OEChem-04222116183D

 31 32  0     0  0  0  0  0  0999 V2000
    6.4580   -5.0740   21.6600 N   0  0  0  0  0  0  0  0  0  0  0  0
    7.7170   -3.4870   20.2310 C   0  0  0  0  0  0  0  0  0  0  0  0
    5.7790   -4.7100   19.5560 O   0  0  0  0  0  0  0  0  0  0  0  0
    6.5830   -4.4800   20.4520 C   0  0  0  0  0  0  0  0  0  0  0  0
    7.3020   -4.8180   22.8280 C   0  0  0  0  0  0  0  0  0  0  0  0
    6.4570   -4.3000   23.9610 C   0  0  0  0  0  0  0  0  0  0  0  0
    4.5580   -5.5840   23.1030 C   0  0  0  0  0  0  0  0  0  0  0  0
    5.4240   -6.0620   21.9650 C   0  0  0  0  0  0  0  0  0  0  0  0
    3.5060   -3.8270   25.6030 C   0  0  0  0  0  0  0  0  0  0  0  0
    2.1960   -3.9360   25.2050 C   0  0  0  0  0  0  0  0  0  0  0  0
    1.5490   -2.6750   25.2580 C   0  0  0  0  0  0  0  0  0  0  0  0
    2.3390   -1.6930   25.7540 C   0  0  0  0  0  0  0  0  0  0  0  0
    5.4040   -5.2810   24.2720 N   0  0  0  0  0  0  0  0  0  0  0  0
    3.9120   -6.3280   25.9370 O   0  0  0  0  0  0  0  0  0  0  0  0
    5.6580   -4.7400   26.6680 O   0  0  0  0  0  0  0  0  0  0  0  0
    4.6610   -5.1310   25.7200 S   0  0  0  0  0  0  0  0  0  0  0  0
    3.9440   -2.2160   25.9850 S   0  0  0  0  0  0  0  0  0  0  0  0
    7.3416   -2.4863   20.4911 H   0  0  0  0  0  0  0  0  0  0  0  0
    8.5378   -3.7589   20.9109 H   0  0  0  0  0  0  0  0  0  0  0  0
    7.7933   -5.7527   23.1360 H   0  0  0  0  0  0  0  0  0  0  0  0
    8.0661   -4.0699   22.5701 H   0  0  0  0  0  0  0  0  0  0  0  0
    7.0880   -4.1447   24.8485 H   0  0  0  0  0  0  0  0  0  0  0  0
    5.9950   -3.3457   23.6681 H   0  0  0  0  0  0  0  0  0  0  0  0
    4.0179   -4.6761   22.7963 H   0  0  0  0  0  0  0  0  0  0  0  0
    3.8345   -6.3691   23.3678 H   0  0  0  0  0  0  0  0  0  0  0  0
    5.9023   -7.0114   22.2478 H   0  0  0  0  0  0  0  0  0  0  0  0
    4.7979   -6.2179   21.0741 H   0  0  0  0  0  0  0  0  0  0  0  0
    1.7233   -4.8560   24.8942 H   0  0  0  0  0  0  0  0  0  0  0  0
    0.5308   -2.5143   24.9359 H   0  0  0  0  0  0  0  0  0  0  0  0
    1.9920   -0.6949   25.9771 H   0  0  0  0  0  0  0  0  0  0  0  0
    8.3970   -3.4030   18.5480 R#  0  0  0  0  0  0  0  0  0  0  0  0
  1  4  1  0  0  0  0
  1  5  1  0  0  0  0
  1  8  1  0  0  0  0
  2  4  1  0  0  0  0
  3  4  2  0  0  0  0
  5  6  1  0  0  0  0
  6 13  1  0  0  0  0
  7  8  1  0  0  0  0
  7 13  1  0  0  0  0
  9 10  2  0  0  0  0
  9 16  1  0  0  0  0
  9 17  1  0  0  0  0
 10 11  1  0  0  0  0
 11 12  2  0  0  0  0
 12 17  1  0  0  0  0
 13 16  1  0  0  0  0
 14 16  2  0  0  0  0
 15 16  2  0  0  0  0
  2 18  1  0  0  0  0
  2 19  1  0  0  0  0
  5 20  1  0  0  0  0
  5 21  1  0  0  0  0
  6 22  1  0  0  0  0
  6 23  1  0  0  0  0
  7 24  1  0  0  0  0
  7 25  1  0  0  0  0
  8 26  1  0  0  0  0
  8 27  1  0  0  0  0
 10 28  1  0  0  0  0
 11 29  1  0  0  0  0
 12 30  1  0  0  0  0
  2 31  1  0  0  0  0
M  RGP  1  31   2
M  END
$$$$
